Version 4
SHEET 1 1348 852
WIRE 320 -256 240 -256
WIRE 352 -256 320 -256
WIRE 464 -256 432 -256
WIRE -864 -224 -1344 -224
WIRE -704 -224 -864 -224
WIRE 464 -208 464 -256
WIRE 240 -176 240 -256
WIRE 320 -160 320 -256
WIRE 736 -160 320 -160
WIRE 736 -64 736 -80
WIRE 832 -64 736 -64
WIRE 1008 -64 896 -64
WIRE 1120 -64 1008 -64
WIRE 1216 -64 1120 -64
WIRE -704 -32 -704 -224
WIRE -128 -32 -704 -32
WIRE 0 -32 -48 -32
WIRE 240 -32 240 -96
WIRE 240 -32 192 -32
WIRE 560 -32 240 -32
WIRE 672 -32 640 -32
WIRE 736 -32 736 -64
WIRE 672 16 672 -32
WIRE 1008 16 1008 -64
WIRE -704 32 -704 -32
WIRE 240 32 192 32
WIRE 1120 32 1120 -64
WIRE -1344 48 -1344 -224
WIRE 0 64 0 48
WIRE 0 64 -32 64
WIRE 240 144 240 32
WIRE 1008 160 1008 96
WIRE 1056 160 1008 160
WIRE 1120 160 1120 96
WIRE 1120 160 1056 160
WIRE 736 176 736 64
WIRE 1056 176 1056 160
WIRE -704 192 -704 112
WIRE -528 192 -704 192
WIRE -32 192 -32 64
WIRE -32 192 -464 192
WIRE -1344 208 -1344 128
WIRE -1216 208 -1344 208
WIRE -912 208 -1216 208
WIRE -704 208 -704 192
WIRE -704 208 -832 208
WIRE -896 256 -960 256
WIRE -768 256 -848 256
WIRE -960 448 -960 256
WIRE -896 448 -960 448
WIRE -816 464 -816 448
WIRE -768 464 -768 256
WIRE -768 464 -816 464
FLAG 240 144 0
FLAG 464 -208 0
FLAG -864 -224 power
FLAG 736 176 0
FLAG 1056 176 0
FLAG 1216 -64 GPIO
FLAG -1216 288 0
SYMBOL Optos\\4N25 96 32 R0
SYMATTR InstName U1
SYMBOL voltage 336 -256 R270
WINDOW 123 0 0 Left 0
WINDOW 39 24 124 Left 2
SYMATTR SpiceLine Rser=0
SYMATTR InstName V1
SYMATTR Value 3.3
SYMBOL res -32 -48 R90
WINDOW 0 0 56 VBottom 2
WINDOW 3 32 56 VTop 2
SYMATTR InstName R1
SYMATTR Value 220
SYMBOL Misc\\signal -1344 32 R0
WINDOW 123 0 0 Left 0
WINDOW 39 24 132 Left 2
SYMATTR SpiceLine Rser=1m
SYMATTR InstName V2
SYMATTR Value SINE(0 13 50)
SYMBOL sw -928 208 R270
WINDOW 3 24 -12 Left 2
SYMATTR Value Switch1
SYMATTR InstName S1
SYMBOL res -720 16 R0
SYMATTR InstName R2
SYMATTR Value 60
SYMBOL Misc\\signal -800 448 R90
WINDOW 123 0 0 Left 0
WINDOW 39 24 132 Left 2
SYMATTR InstName V3
SYMATTR Value PULSE(0 5 1 1u 1u 250m)
SYMBOL res 224 -192 R0
SYMATTR InstName R3
SYMATTR Value 1.5k
SYMBOL npn 672 -32 R0
SYMATTR InstName Q1
SYMATTR Value BC547C
SYMBOL res 656 -48 R90
WINDOW 0 0 56 VBottom 2
WINDOW 3 32 56 VTop 2
SYMATTR InstName R4
SYMATTR Value 22k
SYMBOL res 720 -176 R0
SYMATTR InstName R5
SYMATTR Value 4k7
SYMBOL schottky 832 -48 R270
WINDOW 0 32 32 VTop 2
WINDOW 3 0 32 VBottom 2
SYMATTR InstName D1
SYMATTR Value BAT54AHM
SYMATTR Description Diode
SYMATTR Type diode
SYMBOL cap 1104 32 R0
SYMATTR InstName C1
SYMATTR Value 470n
SYMBOL res 992 0 R0
SYMATTR InstName R7
SYMATTR Value 150k
SYMBOL zener -528 208 R270
WINDOW 0 32 32 VTop 2
WINDOW 3 0 32 VBottom 2
SYMATTR InstName D2
SYMATTR Value 1N750
SYMATTR Description Diode
SYMATTR Type diode
SYMBOL res -1232 192 R0
SYMATTR InstName R6
SYMATTR Value 1G
TEXT -1376 752 Left 2 !.tran 2
TEXT -840 232 Left 2 !.model Switch1 SW(Ron=1 Roff=100Meg Vt=.5 Vh=-.4)
